15
(ZnO)₁₅
O         3.751933818              1.624635000              7.197041344              
Zn        4.689917273              0.000000000              7.808160000              
O         4.689917273              -0.000000000             9.799761344              
Zn        7.503867637              1.624635000              7.808160000              
O         6.565884182              -0.000000000             7.197041344              
Zn        4.689917273              3.249270000              7.808160000              
O         7.503867637              1.624635000              9.799761344              
Zn        7.503867637              0.000000000              7.808160000              
O         3.751933818              4.873905000              7.197041344              
Zn        4.689917273              4.873905000              7.808160000              
O         4.689917273              3.249270000              9.799761344              
Zn        4.689917273              4.873905000              13.013600000             
O         6.565884182              3.249270000              7.197041344              
Zn        6.565884182              6.498540000              10.410880000             
O         7.503867637              4.873905000              9.799761344              
Zn        7.503867637              6.498540000              13.013600000             
O         4.689917273              6.498540000              9.799761344              
Zn        4.689917273              4.873905000              13.013600000             
O         6.565884182              6.498540000              7.197041344              
Zn        6.565884182              0.000000000              10.410880000             
O         6.565884182              6.498540000              12.402481344             
Zn        3.751933818              0.000000000              10.410880000             
O         6.565884182              0.000000000              12.402481344             
Zn        4.689917273              1.624635000              13.013600000             
O         3.751933818              1.624635000              12.402481344             
Zn        6.565884182              3.249270000              10.410880000             
O         6.565884182              3.249270000              12.402481344             
Zn        7.503867637              3.249270000              13.013600000             
O         3.751933818              4.873905000              12.402481344             
Zn        3.751933818              1.624635000              10.410880000             
