30
(ZnO)₁₅
O         1.875966909              3.249270000              9.799761344              
Zn        4.689917273              4.873905000              13.013600000             
O         4.689917273              1.624635000              9.799761344              
Zn        6.565884182              4.873905000              10.410880000             
O         7.503867637              3.249270000              9.799761344              
Zn        7.503867637              3.249270000              13.013600000             
O         1.875966909              6.498540000              9.799761344              
Zn        1.875966909              6.498540000              13.013600000             
O         4.689917273              4.873905000              9.799761344              
Zn        3.751933818              6.498540000              10.410880000             
O         4.689917273              4.873905000              15.005201344             
Zn        4.689917273              1.624635000              13.013600000             
O         6.565884182              4.873905000              12.402481344             
Zn        6.565884182              1.624635000              10.410880000             
O         7.503867637              3.249270000              15.005201344             
Zn        0.937983455              4.873905000              10.410880000             
O         1.875966909              6.498540000              15.005201344             
Zn        1.875966909              3.249270000              13.013600000             
O         3.751933818              6.498540000              12.402481344             
Zn        3.751933818              3.249270000              10.410880000             
O         4.689917273              1.624635000              15.005201344             
Zn        3.751933818              3.249270000              15.616320000             
O         6.565884182              1.624635000              12.402481344             
Zn        6.565884182              1.624635000              15.616320000             
O         0.937983455              4.873905000              12.402481344             
Zn        0.937983455              4.873905000              15.616320000             
O         1.875966909              3.249270000              15.005201344             
Zn        3.751933818              6.498540000              15.616320000             
O         3.751933818              3.249270000              12.402481344             
Zn        6.565884182              4.873905000              15.616320000             
