15
(ZnO)₁₅
O         3.751943135              1.624614371              7.197064588              
Zn        4.689925185              0.061120194              7.843318768              
O         4.689975591              -0.000000590             9.799721518              
Zn        7.503850076              1.649028560              7.847953102              
O         6.565831655              -0.000005259             7.197025800              
Zn        4.689925196              3.249269824              7.848999169              
O         7.503858925              1.624609130              9.799750931              
Zn        7.503869057              0.050597512              7.871352184              
O         3.751869172              4.873886666              7.197005018              
Zn        4.689941314              4.844386646              7.882919977              
O         4.689918589              3.249238126              9.799770300              
Zn        4.689939762              4.848572746              12.982172380             
O         6.565881246              3.249235300              7.197053383              
Zn        6.565875317              6.433266361              10.403343249             
O         7.503868162              4.873898487              9.799796810              
Zn        7.503871713              6.460029145              13.001827609             
O         4.689927145              6.498538181              9.799782672              
Zn        4.689939762              4.848572746              12.982172380             
O         6.565885864              6.498543645              7.197042080              
Zn        6.565875317              0.065273634              10.403343105             
O         6.565825189              6.498522173              12.402466337             
Zn        3.751933090              0.057066220              10.437177341             
O         6.565872899              0.000007255              12.402469265             
Zn        4.689939762              1.649967374              12.982172997             
O         3.751876922              1.624627670              12.402431110             
Zn        6.565874501              3.249269916              10.397275519             
O         6.565810649              3.249281865              12.402466005             
Zn        7.503868613              3.249269936              12.987510077             
O         3.751828528              4.873896375              12.402437549             
Zn        3.751952259              1.652644773              10.403519179             
