30
(ZnO)₁₅
O         1.875698624              3.249172728              9.801668455              
Zn        4.690140668              7.683970765              14.573263130             
O         4.690602338              1.625916219              9.799445462              
Zn        6.564633102              3.708306203              3.273438376              
O         7.504158784              3.249054153              9.800011400              
Zn        7.501844125              3.814852886              12.462241609             
O         1.875929768              6.498973637              9.800813317              
Zn        1.877678767              8.767897935              12.148132974             
O         4.691588934              4.874472087              9.801704248              
Zn        3.751882004              0.943194387              0.950118743              
O         4.690990137              4.874259314              15.003853387             
Zn        4.690406739              0.264384782              12.808251023             
O         6.565220382              4.872775771              12.406776784             
Zn        6.564570236              7.150668769              7.635751226              
O         7.504281678              3.249955901              15.004075730             
Zn        0.939870488              4.391139938              9.326313406              
O         1.876198001              6.498491239              15.004297573             
Zn        1.877791200              3.636670607              12.179789184             
O         3.751187586              6.495689372              12.405185913             
Zn        3.752152993              7.189259641              7.780456449              
O         4.690778608              1.624983937              15.004112245             
Zn        3.751978351              3.849894404              3.026247751              
O         6.565705207              1.625942583              12.401827528             
Zn        6.564751262              1.031387167              10.210293462             
O         0.935601028              4.879614963              12.403707418             
Zn        0.939466903              6.031036484              7.844580630              
O         1.875425697              3.249949568              15.003370037             
Zn        3.751731776              2.241083333              5.789373149              
O         3.748602547              3.253455713              12.416058437             
Zn        6.564691066              0.505540350              15.104446991             
